#n BVWN/6-31G(d,p) Opt

 Title

0 1
O          3.60760       -0.56200        1.06640
C         -0.41110        0.76610        0.50570
C         -1.33820       -0.43140        0.20030
C          1.03240        0.29830        0.80310
C         -0.40980        1.85040       -0.59600
C         -2.82210       -0.05900        0.11110
C          1.70030       -0.40360       -0.37790
C         -3.69200       -1.29940       -0.10050
C          0.45540        3.06970       -0.30720
C          3.12140       -0.80390       -0.03830
C         -5.16910       -0.94220       -0.15090
C          3.92530       -1.48310       -1.11590
H         -0.78220        1.23720        1.42680
H         -1.04380       -0.89970       -0.74630
H         -1.21000       -1.18830        0.98460
H          1.00270       -0.39270        1.65670
H          1.64230        1.14430        1.14120
H         -1.43510        2.21730       -0.72290
H         -0.12640        1.42110       -1.56350
H         -2.98970        0.63580       -0.71880
H         -3.12700        0.45180        1.03230
H          1.16170       -1.31660       -0.64810
H          1.75150        0.25350       -1.25060
H         -3.40860       -1.79770       -1.03480
H         -3.52520       -2.01520        0.71300
H          0.26600        3.84780       -1.05400
H          0.23120        3.48660        0.67950
H          1.52130        2.82860       -0.35250
H         -5.77190       -1.84290       -0.30320
H         -5.37750       -0.25070       -0.97350
H         -5.49120       -0.47190        0.78360
H          4.91260       -1.74840       -0.72810
H          4.04620       -0.80480       -1.96380
H          3.41440       -2.39580       -1.43240

