%mem=3700MB
%nprocshared=2
# opt 6-31g(d,p) geom=connectivity bvwn

Title

0 1
 C                 -2.15547000    1.64247000   -0.00407000
 C                 -0.82061000    2.37478000    0.01442000
 H                 -2.93291000    2.32382000    0.36477000
 H                 -2.17018000    0.75147000    0.63393000
 H                 -2.44584000    1.35508000   -1.01822000
 C                  0.44343000    1.52735000   -0.01670000
 H                 -0.78316000    2.99306000    0.91399000
 H                 -0.79794000    3.05645000   -0.84649000
 H                  0.53661000    0.89677000    0.87642000
 H                  1.31118000    2.19901000   -0.02356000
 H                  0.51209000    0.89539000   -0.90467000

 1 2 1.0 3 1.0 4 1.0 5 1.0
 2 6 1.0 7 1.0 8 1.0
 3
 4
 5
 6 9 1.0 10 1.0 11 1.0
 7
 8
 9
 10
 11

